[board]
type=System
children=cache_hierarchy clk_domain dvfs_handler memory processor workload
auto_unlink_shared_backstore=false
cache_line_size=64
eventq_index=0
exit_on_work_items=true
init_param=0
m5ops_base=0
mem_mode=timing
mem_ranges=0:8589934592
memories=board.memory.mem_ctrl0.dram board.memory.mem_ctrl1.dram
mmap_using_noreserve=false
multi_thread=false
num_work_ids=16
readfile=
redirect_paths=
shadow_rom_ranges=
shared_backstore=
symbolfile=
thermal_components=
thermal_model=Null
work_begin_ckpt_count=0
work_begin_cpu_id_exit=-1
work_begin_exit_count=0
work_cpus_ckpt_count=0
work_end_ckpt_count=0
work_end_exit_count=0
work_item_id=-1
workload=board.workload
system_port=board.cache_hierarchy.membus.cpu_side_ports[0]

[board.cache_hierarchy]
type=SubSystem
children=dptw_caches iptw_caches l1dcaches l1icaches l2buses l2caches membus
eventq_index=0
thermal_domain=Null

[board.cache_hierarchy.dptw_caches]
type=Cache
children=power_state replacement_policy tags
addr_ranges=0:18446744073709551615
assoc=4
clk_domain=board.clk_domain
clusivity=mostly_incl
compressor=Null
data_latency=1
demand_mshr_reserve=1
eventq_index=0
is_read_only=false
max_miss_count=0
move_contractions=true
mshrs=20
power_model=
power_state=board.cache_hierarchy.dptw_caches.power_state
prefetch_on_access=false
prefetch_on_pf_hit=false
prefetcher=Null
replace_expansions=true
replacement_policy=board.cache_hierarchy.dptw_caches.replacement_policy
response_latency=1
sequential_access=false
size=8192
system=board
tag_latency=1
tags=board.cache_hierarchy.dptw_caches.tags
tgts_per_mshr=12
warmup_percentage=0
write_allocator=Null
write_buffers=8
writeback_clean=true
cpu_side=board.processor.cores.core.mmu.dtb.walker.port
mem_side=board.cache_hierarchy.l2buses.cpu_side_ports[3]

[board.cache_hierarchy.dptw_caches.power_state]
type=PowerState
clk_gate_bins=20
clk_gate_max=1000000000000
clk_gate_min=1000
default_state=UNDEFINED
eventq_index=0
leaders=
possible_states=

[board.cache_hierarchy.dptw_caches.replacement_policy]
type=LRURP
eventq_index=0

[board.cache_hierarchy.dptw_caches.tags]
type=BaseSetAssoc
children=indexing_policy power_state
assoc=4
block_size=64
clk_domain=board.clk_domain
entry_size=64
eventq_index=0
indexing_policy=board.cache_hierarchy.dptw_caches.tags.indexing_policy
power_model=
power_state=board.cache_hierarchy.dptw_caches.tags.power_state
replacement_policy=board.cache_hierarchy.dptw_caches.replacement_policy
sequential_access=false
size=8192
system=board
tag_latency=1
warmup_percentage=0

[board.cache_hierarchy.dptw_caches.tags.indexing_policy]
type=SetAssociative
assoc=4
entry_size=64
eventq_index=0
size=8192

[board.cache_hierarchy.dptw_caches.tags.power_state]
type=PowerState
clk_gate_bins=20
clk_gate_max=1000000000000
clk_gate_min=1000
default_state=UNDEFINED
eventq_index=0
leaders=
possible_states=

[board.cache_hierarchy.iptw_caches]
type=Cache
children=power_state replacement_policy tags
addr_ranges=0:18446744073709551615
assoc=4
clk_domain=board.clk_domain
clusivity=mostly_incl
compressor=Null
data_latency=1
demand_mshr_reserve=1
eventq_index=0
is_read_only=false
max_miss_count=0
move_contractions=true
mshrs=20
power_model=
power_state=board.cache_hierarchy.iptw_caches.power_state
prefetch_on_access=false
prefetch_on_pf_hit=false
prefetcher=Null
replace_expansions=true
replacement_policy=board.cache_hierarchy.iptw_caches.replacement_policy
response_latency=1
sequential_access=false
size=8192
system=board
tag_latency=1
tags=board.cache_hierarchy.iptw_caches.tags
tgts_per_mshr=12
warmup_percentage=0
write_allocator=Null
write_buffers=8
writeback_clean=true
cpu_side=board.processor.cores.core.mmu.itb.walker.port
mem_side=board.cache_hierarchy.l2buses.cpu_side_ports[2]

[board.cache_hierarchy.iptw_caches.power_state]
type=PowerState
clk_gate_bins=20
clk_gate_max=1000000000000
clk_gate_min=1000
default_state=UNDEFINED
eventq_index=0
leaders=
possible_states=

[board.cache_hierarchy.iptw_caches.replacement_policy]
type=LRURP
eventq_index=0

[board.cache_hierarchy.iptw_caches.tags]
type=BaseSetAssoc
children=indexing_policy power_state
assoc=4
block_size=64
clk_domain=board.clk_domain
entry_size=64
eventq_index=0
indexing_policy=board.cache_hierarchy.iptw_caches.tags.indexing_policy
power_model=
power_state=board.cache_hierarchy.iptw_caches.tags.power_state
replacement_policy=board.cache_hierarchy.iptw_caches.replacement_policy
sequential_access=false
size=8192
system=board
tag_latency=1
warmup_percentage=0

[board.cache_hierarchy.iptw_caches.tags.indexing_policy]
type=SetAssociative
assoc=4
entry_size=64
eventq_index=0
size=8192

[board.cache_hierarchy.iptw_caches.tags.power_state]
type=PowerState
clk_gate_bins=20
clk_gate_max=1000000000000
clk_gate_min=1000
default_state=UNDEFINED
eventq_index=0
leaders=
possible_states=

[board.cache_hierarchy.l1dcaches]
type=Cache
children=power_state prefetcher replacement_policy tags
addr_ranges=0:18446744073709551615
assoc=8
clk_domain=board.clk_domain
clusivity=mostly_incl
compressor=Null
data_latency=1
demand_mshr_reserve=1
eventq_index=0
is_read_only=false
max_miss_count=0
move_contractions=true
mshrs=16
power_model=
power_state=board.cache_hierarchy.l1dcaches.power_state
prefetch_on_access=false
prefetch_on_pf_hit=false
prefetcher=board.cache_hierarchy.l1dcaches.prefetcher
replace_expansions=true
replacement_policy=board.cache_hierarchy.l1dcaches.replacement_policy
response_latency=1
sequential_access=false
size=32768
system=board
tag_latency=1
tags=board.cache_hierarchy.l1dcaches.tags
tgts_per_mshr=20
warmup_percentage=0
write_allocator=Null
write_buffers=8
writeback_clean=true
cpu_side=board.processor.cores.core.dcache_port
mem_side=board.cache_hierarchy.l2buses.cpu_side_ports[1]

[board.cache_hierarchy.l1dcaches.power_state]
type=PowerState
clk_gate_bins=20
clk_gate_max=1000000000000
clk_gate_min=1000
default_state=UNDEFINED
eventq_index=0
leaders=
possible_states=

[board.cache_hierarchy.l1dcaches.prefetcher]
type=StridePrefetcher
children=power_state table_indexing_policy table_replacement_policy
block_size=64
cache_snoop=false
clk_domain=board.clk_domain
confidence_counter_bits=3
confidence_threshold=50
degree=4
eventq_index=0
initial_confidence=4
latency=1
max_prefetch_requests_with_pending_translation=32
on_data=true
on_inst=false
on_miss=false
on_read=true
on_write=true
page_bytes=4096
power_model=
power_state=board.cache_hierarchy.l1dcaches.prefetcher.power_state
prefetch_on_access=false
prefetch_on_pf_hit=false
queue_filter=true
queue_size=32
queue_squash=true
sys=board
table_assoc=4
table_entries=64
table_indexing_policy=board.cache_hierarchy.l1dcaches.prefetcher.table_indexing_policy
table_replacement_policy=board.cache_hierarchy.l1dcaches.prefetcher.table_replacement_policy
tag_prefetch=true
throttle_control_percentage=0
use_requestor_id=true
use_virtual_addresses=false

[board.cache_hierarchy.l1dcaches.prefetcher.power_state]
type=PowerState
clk_gate_bins=20
clk_gate_max=1000000000000
clk_gate_min=1000
default_state=UNDEFINED
eventq_index=0
leaders=
possible_states=

[board.cache_hierarchy.l1dcaches.prefetcher.table_indexing_policy]
type=StridePrefetcherHashedSetAssociative
assoc=4
entry_size=1
eventq_index=0
size=64

[board.cache_hierarchy.l1dcaches.prefetcher.table_replacement_policy]
type=RandomRP
eventq_index=0

[board.cache_hierarchy.l1dcaches.replacement_policy]
type=LRURP
eventq_index=0

[board.cache_hierarchy.l1dcaches.tags]
type=BaseSetAssoc
children=indexing_policy power_state
assoc=8
block_size=64
clk_domain=board.clk_domain
entry_size=64
eventq_index=0
indexing_policy=board.cache_hierarchy.l1dcaches.tags.indexing_policy
power_model=
power_state=board.cache_hierarchy.l1dcaches.tags.power_state
replacement_policy=board.cache_hierarchy.l1dcaches.replacement_policy
sequential_access=false
size=32768
system=board
tag_latency=1
warmup_percentage=0

[board.cache_hierarchy.l1dcaches.tags.indexing_policy]
type=SetAssociative
assoc=8
entry_size=64
eventq_index=0
size=32768

[board.cache_hierarchy.l1dcaches.tags.power_state]
type=PowerState
clk_gate_bins=20
clk_gate_max=1000000000000
clk_gate_min=1000
default_state=UNDEFINED
eventq_index=0
leaders=
possible_states=

[board.cache_hierarchy.l1icaches]
type=Cache
children=power_state prefetcher replacement_policy tags
addr_ranges=0:18446744073709551615
assoc=8
clk_domain=board.clk_domain
clusivity=mostly_incl
compressor=Null
data_latency=1
demand_mshr_reserve=1
eventq_index=0
is_read_only=false
max_miss_count=0
move_contractions=true
mshrs=16
power_model=
power_state=board.cache_hierarchy.l1icaches.power_state
prefetch_on_access=false
prefetch_on_pf_hit=false
prefetcher=board.cache_hierarchy.l1icaches.prefetcher
replace_expansions=true
replacement_policy=board.cache_hierarchy.l1icaches.replacement_policy
response_latency=1
sequential_access=false
size=32768
system=board
tag_latency=1
tags=board.cache_hierarchy.l1icaches.tags
tgts_per_mshr=20
warmup_percentage=0
write_allocator=Null
write_buffers=8
writeback_clean=true
cpu_side=board.processor.cores.core.icache_port
mem_side=board.cache_hierarchy.l2buses.cpu_side_ports[0]

[board.cache_hierarchy.l1icaches.power_state]
type=PowerState
clk_gate_bins=20
clk_gate_max=1000000000000
clk_gate_min=1000
default_state=UNDEFINED
eventq_index=0
leaders=
possible_states=

[board.cache_hierarchy.l1icaches.prefetcher]
type=StridePrefetcher
children=power_state table_indexing_policy table_replacement_policy
block_size=64
cache_snoop=false
clk_domain=board.clk_domain
confidence_counter_bits=3
confidence_threshold=50
degree=4
eventq_index=0
initial_confidence=4
latency=1
max_prefetch_requests_with_pending_translation=32
on_data=true
on_inst=false
on_miss=false
on_read=true
on_write=true
page_bytes=4096
power_model=
power_state=board.cache_hierarchy.l1icaches.prefetcher.power_state
prefetch_on_access=false
prefetch_on_pf_hit=false
queue_filter=true
queue_size=32
queue_squash=true
sys=board
table_assoc=4
table_entries=64
table_indexing_policy=board.cache_hierarchy.l1icaches.prefetcher.table_indexing_policy
table_replacement_policy=board.cache_hierarchy.l1icaches.prefetcher.table_replacement_policy
tag_prefetch=true
throttle_control_percentage=0
use_requestor_id=true
use_virtual_addresses=false

[board.cache_hierarchy.l1icaches.prefetcher.power_state]
type=PowerState
clk_gate_bins=20
clk_gate_max=1000000000000
clk_gate_min=1000
default_state=UNDEFINED
eventq_index=0
leaders=
possible_states=

[board.cache_hierarchy.l1icaches.prefetcher.table_indexing_policy]
type=StridePrefetcherHashedSetAssociative
assoc=4
entry_size=1
eventq_index=0
size=64

[board.cache_hierarchy.l1icaches.prefetcher.table_replacement_policy]
type=RandomRP
eventq_index=0

[board.cache_hierarchy.l1icaches.replacement_policy]
type=LRURP
eventq_index=0

[board.cache_hierarchy.l1icaches.tags]
type=BaseSetAssoc
children=indexing_policy power_state
assoc=8
block_size=64
clk_domain=board.clk_domain
entry_size=64
eventq_index=0
indexing_policy=board.cache_hierarchy.l1icaches.tags.indexing_policy
power_model=
power_state=board.cache_hierarchy.l1icaches.tags.power_state
replacement_policy=board.cache_hierarchy.l1icaches.replacement_policy
sequential_access=false
size=32768
system=board
tag_latency=1
warmup_percentage=0

[board.cache_hierarchy.l1icaches.tags.indexing_policy]
type=SetAssociative
assoc=8
entry_size=64
eventq_index=0
size=32768

[board.cache_hierarchy.l1icaches.tags.power_state]
type=PowerState
clk_gate_bins=20
clk_gate_max=1000000000000
clk_gate_min=1000
default_state=UNDEFINED
eventq_index=0
leaders=
possible_states=

[board.cache_hierarchy.l2buses]
type=CoherentXBar
children=power_state snoop_filter
clk_domain=board.clk_domain
eventq_index=0
forward_latency=0
frontend_latency=1
header_latency=1
max_outstanding_snoops=512
max_routing_table_size=512
point_of_coherency=false
point_of_unification=true
power_model=
power_state=board.cache_hierarchy.l2buses.power_state
response_latency=1
snoop_filter=board.cache_hierarchy.l2buses.snoop_filter
snoop_response_latency=1
system=board
use_default_range=false
width=32
cpu_side_ports=board.cache_hierarchy.l1icaches.mem_side board.cache_hierarchy.l1dcaches.mem_side board.cache_hierarchy.iptw_caches.mem_side board.cache_hierarchy.dptw_caches.mem_side
mem_side_ports=board.cache_hierarchy.l2caches.cpu_side

[board.cache_hierarchy.l2buses.power_state]
type=PowerState
clk_gate_bins=20
clk_gate_max=1000000000000
clk_gate_min=1000
default_state=UNDEFINED
eventq_index=0
leaders=
possible_states=

[board.cache_hierarchy.l2buses.snoop_filter]
type=SnoopFilter
eventq_index=0
lookup_latency=0
max_capacity=8388608
system=board

[board.cache_hierarchy.l2caches]
type=Cache
children=power_state prefetcher replacement_policy tags
addr_ranges=0:18446744073709551615
assoc=16
clk_domain=board.clk_domain
clusivity=mostly_incl
compressor=Null
data_latency=10
demand_mshr_reserve=1
eventq_index=0
is_read_only=false
max_miss_count=0
move_contractions=true
mshrs=20
power_model=
power_state=board.cache_hierarchy.l2caches.power_state
prefetch_on_access=false
prefetch_on_pf_hit=false
prefetcher=board.cache_hierarchy.l2caches.prefetcher
replace_expansions=true
replacement_policy=board.cache_hierarchy.l2caches.replacement_policy
response_latency=1
sequential_access=false
size=524288
system=board
tag_latency=10
tags=board.cache_hierarchy.l2caches.tags
tgts_per_mshr=12
warmup_percentage=0
write_allocator=Null
write_buffers=8
writeback_clean=true
cpu_side=board.cache_hierarchy.l2buses.mem_side_ports[0]
mem_side=board.cache_hierarchy.membus.cpu_side_ports[1]

[board.cache_hierarchy.l2caches.power_state]
type=PowerState
clk_gate_bins=20
clk_gate_max=1000000000000
clk_gate_min=1000
default_state=UNDEFINED
eventq_index=0
leaders=
possible_states=

[board.cache_hierarchy.l2caches.prefetcher]
type=StridePrefetcher
children=power_state table_indexing_policy table_replacement_policy
block_size=64
cache_snoop=false
clk_domain=board.clk_domain
confidence_counter_bits=3
confidence_threshold=50
degree=4
eventq_index=0
initial_confidence=4
latency=1
max_prefetch_requests_with_pending_translation=32
on_data=true
on_inst=false
on_miss=false
on_read=true
on_write=true
page_bytes=4096
power_model=
power_state=board.cache_hierarchy.l2caches.prefetcher.power_state
prefetch_on_access=false
prefetch_on_pf_hit=false
queue_filter=true
queue_size=32
queue_squash=true
sys=board
table_assoc=4
table_entries=64
table_indexing_policy=board.cache_hierarchy.l2caches.prefetcher.table_indexing_policy
table_replacement_policy=board.cache_hierarchy.l2caches.prefetcher.table_replacement_policy
tag_prefetch=true
throttle_control_percentage=0
use_requestor_id=true
use_virtual_addresses=false

[board.cache_hierarchy.l2caches.prefetcher.power_state]
type=PowerState
clk_gate_bins=20
clk_gate_max=1000000000000
clk_gate_min=1000
default_state=UNDEFINED
eventq_index=0
leaders=
possible_states=

[board.cache_hierarchy.l2caches.prefetcher.table_indexing_policy]
type=StridePrefetcherHashedSetAssociative
assoc=4
entry_size=1
eventq_index=0
size=64

[board.cache_hierarchy.l2caches.prefetcher.table_replacement_policy]
type=RandomRP
eventq_index=0

[board.cache_hierarchy.l2caches.replacement_policy]
type=LRURP
eventq_index=0

[board.cache_hierarchy.l2caches.tags]
type=BaseSetAssoc
children=indexing_policy power_state
assoc=16
block_size=64
clk_domain=board.clk_domain
entry_size=64
eventq_index=0
indexing_policy=board.cache_hierarchy.l2caches.tags.indexing_policy
power_model=
power_state=board.cache_hierarchy.l2caches.tags.power_state
replacement_policy=board.cache_hierarchy.l2caches.replacement_policy
sequential_access=false
size=524288
system=board
tag_latency=10
warmup_percentage=0

[board.cache_hierarchy.l2caches.tags.indexing_policy]
type=SetAssociative
assoc=16
entry_size=64
eventq_index=0
size=524288

[board.cache_hierarchy.l2caches.tags.power_state]
type=PowerState
clk_gate_bins=20
clk_gate_max=1000000000000
clk_gate_min=1000
default_state=UNDEFINED
eventq_index=0
leaders=
possible_states=

[board.cache_hierarchy.membus]
type=CoherentXBar
children=badaddr_responder power_state snoop_filter
clk_domain=board.clk_domain
eventq_index=0
forward_latency=4
frontend_latency=3
header_latency=1
max_outstanding_snoops=512
max_routing_table_size=512
point_of_coherency=true
point_of_unification=true
power_model=
power_state=board.cache_hierarchy.membus.power_state
response_latency=2
snoop_filter=board.cache_hierarchy.membus.snoop_filter
snoop_response_latency=4
system=board
use_default_range=false
width=64
cpu_side_ports=board.system_port board.cache_hierarchy.l2caches.mem_side
default=board.cache_hierarchy.membus.badaddr_responder.pio
mem_side_ports=board.memory.mem_ctrl0.port board.memory.mem_ctrl1.port

[board.cache_hierarchy.membus.badaddr_responder]
type=IsaFake
children=power_state
clk_domain=board.clk_domain
eventq_index=0
fake_mem=false
pio_addr=0
pio_latency=100000
pio_size=8
power_model=
power_state=board.cache_hierarchy.membus.badaddr_responder.power_state
ret_bad_addr=true
ret_data16=65535
ret_data32=4294967295
ret_data64=18446744073709551615
ret_data8=255
system=board
update_data=false
warn_access=
pio=board.cache_hierarchy.membus.default

[board.cache_hierarchy.membus.badaddr_responder.power_state]
type=PowerState
clk_gate_bins=20
clk_gate_max=1000000000000
clk_gate_min=1000
default_state=UNDEFINED
eventq_index=0
leaders=
possible_states=

[board.cache_hierarchy.membus.power_state]
type=PowerState
clk_gate_bins=20
clk_gate_max=1000000000000
clk_gate_min=1000
default_state=UNDEFINED
eventq_index=0
leaders=
possible_states=

[board.cache_hierarchy.membus.snoop_filter]
type=SnoopFilter
eventq_index=0
lookup_latency=1
max_capacity=8388608
system=board

[board.clk_domain]
type=SrcClockDomain
children=voltage_domain
clock=333
domain_id=-1
eventq_index=0
init_perf_level=0
voltage_domain=board.clk_domain.voltage_domain

[board.clk_domain.voltage_domain]
type=VoltageDomain
eventq_index=0
voltage=1.0

[board.dvfs_handler]
type=DVFSHandler
domains=
enable=false
eventq_index=0
sys_clk_domain=board.clk_domain
transition_latency=100000000

[board.memory]
type=SubSystem
children=mem_ctrl0 mem_ctrl1
eventq_index=0
thermal_domain=Null

[board.memory.mem_ctrl0]
type=MemCtrl
children=dram power_state
clk_domain=board.clk_domain
command_window=10000
dram=board.memory.mem_ctrl0.dram
eventq_index=0
mem_sched_policy=frfcfs
min_reads_per_switch=16
min_writes_per_switch=16
power_model=
power_state=board.memory.mem_ctrl0.power_state
qos_policy=Null
qos_priorities=1
qos_priority_escalation=false
qos_q_policy=fifo
qos_requestors=               
qos_syncro_scheduler=false
qos_turnaround_policy=Null
static_backend_latency=10000
static_frontend_latency=10000
system=board
write_high_thresh_perc=85
write_low_thresh_perc=50
port=board.cache_hierarchy.membus.mem_side_ports[0]

[board.memory.mem_ctrl0.dram]
type=DRAMInterface
children=power_state
IDD0=0.048
IDD02=0.003
IDD2N=0.034
IDD2N2=0.0
IDD2P0=0.0
IDD2P02=0.0
IDD2P1=0.025
IDD2P12=0.0
IDD3N=0.043000000000000003
IDD3N2=0.003
IDD3P0=0.0
IDD3P02=0.0
IDD3P1=0.037
IDD3P12=0.0
IDD4R=0.135
IDD4R2=0.0
IDD4W=0.123
IDD4W2=0.0
IDD5=0.25
IDD52=0.0
IDD6=0.03
IDD62=0.0
VDD=1.2
VDD2=2.5
activation_limit=4
addr_mapping=RoRaBaCoCh
bank_groups_per_rank=4
banks_per_rank=16
beats_per_clock=2
burst_length=8
clk_domain=board.clk_domain
conf_table_reported=true
data_clock_sync=false
device_bus_width=8
device_rowbuffer_size=1024
device_size=1073741824
devices_per_rank=8
dll=true
enable_dram_powerdown=false
eventq_index=0
image_file=
in_addr_map=true
kvm_map=true
max_accesses_per_row=16
null=false
page_policy=open_adaptive
power_model=
power_state=board.memory.mem_ctrl0.dram.power_state
range=0:8589934592:0:64
ranks_per_channel=2
read_buffer_size=64
tAAD=833
tBURST=3332
tBURST_MAX=3332
tBURST_MIN=3332
tCCD_L=5000
tCCD_L_WR=5000
tCK=833
tCL=14160
tCS=1666
tCWL=14160
tPPD=0
tRAS=32000
tRCD=14160
tRCD_WR=14160
tREFI=7800000
tRFC=350000
tRP=14160
tRRD=3332
tRRD_L=4900
tRTP=7500
tRTW=1666
tWR=15000
tWTR=5000
tWTR_L=5000
tXAW=21000
tXP=6000
tXPDLL=0
tXS=340000
tXSDLL=0
two_cycle_activate=false
write_buffer_size=128

[board.memory.mem_ctrl0.dram.power_state]
type=PowerState
clk_gate_bins=20
clk_gate_max=1000000000000
clk_gate_min=1000
default_state=UNDEFINED
eventq_index=0
leaders=
possible_states=

[board.memory.mem_ctrl0.power_state]
type=PowerState
clk_gate_bins=20
clk_gate_max=1000000000000
clk_gate_min=1000
default_state=UNDEFINED
eventq_index=0
leaders=
possible_states=

[board.memory.mem_ctrl1]
type=MemCtrl
children=dram power_state
clk_domain=board.clk_domain
command_window=10000
dram=board.memory.mem_ctrl1.dram
eventq_index=0
mem_sched_policy=frfcfs
min_reads_per_switch=16
min_writes_per_switch=16
power_model=
power_state=board.memory.mem_ctrl1.power_state
qos_policy=Null
qos_priorities=1
qos_priority_escalation=false
qos_q_policy=fifo
qos_requestors=               
qos_syncro_scheduler=false
qos_turnaround_policy=Null
static_backend_latency=10000
static_frontend_latency=10000
system=board
write_high_thresh_perc=85
write_low_thresh_perc=50
port=board.cache_hierarchy.membus.mem_side_ports[1]

[board.memory.mem_ctrl1.dram]
type=DRAMInterface
children=power_state
IDD0=0.048
IDD02=0.003
IDD2N=0.034
IDD2N2=0.0
IDD2P0=0.0
IDD2P02=0.0
IDD2P1=0.025
IDD2P12=0.0
IDD3N=0.043000000000000003
IDD3N2=0.003
IDD3P0=0.0
IDD3P02=0.0
IDD3P1=0.037
IDD3P12=0.0
IDD4R=0.135
IDD4R2=0.0
IDD4W=0.123
IDD4W2=0.0
IDD5=0.25
IDD52=0.0
IDD6=0.03
IDD62=0.0
VDD=1.2
VDD2=2.5
activation_limit=4
addr_mapping=RoRaBaCoCh
bank_groups_per_rank=4
banks_per_rank=16
beats_per_clock=2
burst_length=8
clk_domain=board.clk_domain
conf_table_reported=true
data_clock_sync=false
device_bus_width=8
device_rowbuffer_size=1024
device_size=1073741824
devices_per_rank=8
dll=true
enable_dram_powerdown=false
eventq_index=0
image_file=
in_addr_map=true
kvm_map=true
max_accesses_per_row=16
null=false
page_policy=open_adaptive
power_model=
power_state=board.memory.mem_ctrl1.dram.power_state
range=0:8589934592:1:64
ranks_per_channel=2
read_buffer_size=64
tAAD=833
tBURST=3332
tBURST_MAX=3332
tBURST_MIN=3332
tCCD_L=5000
tCCD_L_WR=5000
tCK=833
tCL=14160
tCS=1666
tCWL=14160
tPPD=0
tRAS=32000
tRCD=14160
tRCD_WR=14160
tREFI=7800000
tRFC=350000
tRP=14160
tRRD=3332
tRRD_L=4900
tRTP=7500
tRTW=1666
tWR=15000
tWTR=5000
tWTR_L=5000
tXAW=21000
tXP=6000
tXPDLL=0
tXS=340000
tXSDLL=0
two_cycle_activate=false
write_buffer_size=128

[board.memory.mem_ctrl1.dram.power_state]
type=PowerState
clk_gate_bins=20
clk_gate_max=1000000000000
clk_gate_min=1000
default_state=UNDEFINED
eventq_index=0
leaders=
possible_states=

[board.memory.mem_ctrl1.power_state]
type=PowerState
clk_gate_bins=20
clk_gate_max=1000000000000
clk_gate_min=1000
default_state=UNDEFINED
eventq_index=0
leaders=
possible_states=

[board.processor]
type=SubSystem
children=cores
eventq_index=0
thermal_domain=Null

[board.processor.cores]
type=SubSystem
children=core
eventq_index=0
thermal_domain=Null

[board.processor.cores.core]
type=BaseO3CPU
children=branchPred decoder fuPool interrupts isa mmu power_state tracer workload
LFSTSize=1024
LQEntries=32
LSQCheckLoads=true
LSQDepCheckShift=4
SQEntries=32
SSITSize=1024
activity=0
backComSize=5
branchPred=board.processor.cores.core.branchPred
cacheLoadPorts=200
cacheStorePorts=200
checker=Null
clk_domain=board.clk_domain
commitToDecodeDelay=1
commitToFetchDelay=1
commitToIEWDelay=1
commitToRenameDelay=1
commitWidth=8
cpu_id=0
decodeToFetchDelay=1
decodeToRenameDelay=1
decodeWidth=8
decoder=board.processor.cores.core.decoder
dispatchWidth=8
do_checkpoint_insts=true
do_statistics_insts=true
eventq_index=0
fetchBufferSize=64
fetchQueueSize=32
fetchToDecodeDelay=1
fetchTrapLatency=1
fetchWidth=8
forwardComSize=5
fuPool=board.processor.cores.core.fuPool
function_trace=false
function_trace_start=0
iewToCommitDelay=1
iewToDecodeDelay=1
iewToFetchDelay=1
iewToRenameDelay=1
interrupts=board.processor.cores.core.interrupts
isa=board.processor.cores.core.isa
issueToExecuteDelay=1
issueWidth=8
max_insts_all_threads=0
max_insts_any_thread=0
mmu=board.processor.cores.core.mmu
needsTSO=false
numIQEntries=64
numPhysCCRegs=0
numPhysFloatRegs=256
numPhysIntRegs=256
numPhysVecPredRegs=32
numPhysVecRegs=256
numROBEntries=192
numRobs=1
numThreads=1
power_gating_on_idle=false
power_model=
power_state=board.processor.cores.core.power_state
progress_interval=0
pwr_gating_latency=300
renameToDecodeDelay=1
renameToFetchDelay=1
renameToIEWDelay=2
renameToROBDelay=1
renameWidth=8
simpoint_start_insts=
smtCommitPolicy=RoundRobin
smtFetchPolicy=RoundRobin
smtIQPolicy=Partitioned
smtIQThreshold=100
smtLSQPolicy=Partitioned
smtLSQThreshold=100
smtNumFetchingThreads=1
smtROBPolicy=Partitioned
smtROBThreshold=100
socket_id=0
squashWidth=8
store_set_clear_period=250000
switched_out=false
syscallRetryLatency=10000
system=board
tracer=board.processor.cores.core.tracer
trapLatency=13
wbWidth=8
workload=board.processor.cores.core.workload
dcache_port=board.cache_hierarchy.l1dcaches.cpu_side
icache_port=board.cache_hierarchy.l1icaches.cpu_side

[board.processor.cores.core.branchPred]
type=TournamentBP
children=indirectBranchPred
BTBEntries=4096
BTBTagSize=16
RASSize=16
choiceCtrBits=2
choicePredictorSize=8192
eventq_index=0
globalCtrBits=2
globalPredictorSize=8192
indirectBranchPred=board.processor.cores.core.branchPred.indirectBranchPred
instShiftAmt=2
localCtrBits=2
localHistoryTableSize=2048
localPredictorSize=2048
numThreads=1

[board.processor.cores.core.branchPred.indirectBranchPred]
type=SimpleIndirectPredictor
eventq_index=0
indirectGHRBits=13
indirectHashGHR=true
indirectHashTargets=true
indirectPathLength=3
indirectSets=256
indirectTagSize=16
indirectWays=2
instShiftAmt=2
numThreads=1

[board.processor.cores.core.decoder]
type=RiscvDecoder
eventq_index=0
isa=board.processor.cores.core.isa

[board.processor.cores.core.fuPool]
type=FUPool
children=FUList0 FUList1 FUList2 FUList3 FUList4 FUList5 FUList6 FUList7 FUList8 FUList9
FUList=board.processor.cores.core.fuPool.FUList0 board.processor.cores.core.fuPool.FUList1 board.processor.cores.core.fuPool.FUList2 board.processor.cores.core.fuPool.FUList3 board.processor.cores.core.fuPool.FUList4 board.processor.cores.core.fuPool.FUList5 board.processor.cores.core.fuPool.FUList6 board.processor.cores.core.fuPool.FUList7 board.processor.cores.core.fuPool.FUList8 board.processor.cores.core.fuPool.FUList9
eventq_index=0

[board.processor.cores.core.fuPool.FUList0]
type=FUDesc
children=opList
count=6
eventq_index=0
opList=board.processor.cores.core.fuPool.FUList0.opList

[board.processor.cores.core.fuPool.FUList0.opList]
type=OpDesc
eventq_index=0
opClass=IntAlu
opLat=1
pipelined=true

[board.processor.cores.core.fuPool.FUList1]
type=FUDesc
children=opList0 opList1
count=2
eventq_index=0
opList=board.processor.cores.core.fuPool.FUList1.opList0 board.processor.cores.core.fuPool.FUList1.opList1

[board.processor.cores.core.fuPool.FUList1.opList0]
type=OpDesc
eventq_index=0
opClass=IntMult
opLat=3
pipelined=true

[board.processor.cores.core.fuPool.FUList1.opList1]
type=OpDesc
eventq_index=0
opClass=IntDiv
opLat=20
pipelined=false

[board.processor.cores.core.fuPool.FUList2]
type=FUDesc
children=opList0 opList1 opList2
count=4
eventq_index=0
opList=board.processor.cores.core.fuPool.FUList2.opList0 board.processor.cores.core.fuPool.FUList2.opList1 board.processor.cores.core.fuPool.FUList2.opList2

[board.processor.cores.core.fuPool.FUList2.opList0]
type=OpDesc
eventq_index=0
opClass=FloatAdd
opLat=2
pipelined=true

[board.processor.cores.core.fuPool.FUList2.opList1]
type=OpDesc
eventq_index=0
opClass=FloatCmp
opLat=2
pipelined=true

[board.processor.cores.core.fuPool.FUList2.opList2]
type=OpDesc
eventq_index=0
opClass=FloatCvt
opLat=2
pipelined=true

[board.processor.cores.core.fuPool.FUList3]
type=FUDesc
children=opList0 opList1 opList2 opList3 opList4
count=2
eventq_index=0
opList=board.processor.cores.core.fuPool.FUList3.opList0 board.processor.cores.core.fuPool.FUList3.opList1 board.processor.cores.core.fuPool.FUList3.opList2 board.processor.cores.core.fuPool.FUList3.opList3 board.processor.cores.core.fuPool.FUList3.opList4

[board.processor.cores.core.fuPool.FUList3.opList0]
type=OpDesc
eventq_index=0
opClass=FloatMult
opLat=4
pipelined=true

[board.processor.cores.core.fuPool.FUList3.opList1]
type=OpDesc
eventq_index=0
opClass=FloatMultAcc
opLat=5
pipelined=true

[board.processor.cores.core.fuPool.FUList3.opList2]
type=OpDesc
eventq_index=0
opClass=FloatMisc
opLat=3
pipelined=true

[board.processor.cores.core.fuPool.FUList3.opList3]
type=OpDesc
eventq_index=0
opClass=FloatDiv
opLat=12
pipelined=false

[board.processor.cores.core.fuPool.FUList3.opList4]
type=OpDesc
eventq_index=0
opClass=FloatSqrt
opLat=24
pipelined=false

[board.processor.cores.core.fuPool.FUList4]
type=FUDesc
children=opList0 opList1
count=0
eventq_index=0
opList=board.processor.cores.core.fuPool.FUList4.opList0 board.processor.cores.core.fuPool.FUList4.opList1

[board.processor.cores.core.fuPool.FUList4.opList0]
type=OpDesc
eventq_index=0
opClass=MemRead
opLat=1
pipelined=true

[board.processor.cores.core.fuPool.FUList4.opList1]
type=OpDesc
eventq_index=0
opClass=FloatMemRead
opLat=1
pipelined=true

[board.processor.cores.core.fuPool.FUList5]
type=FUDesc
children=opList00 opList01 opList02 opList03 opList04 opList05 opList06 opList07 opList08 opList09 opList10 opList11 opList12 opList13 opList14 opList15 opList16 opList17 opList18 opList19 opList20 opList21 opList22 opList23 opList24 opList25
count=4
eventq_index=0