[root]
type=Root
children=system
eventq_index=0
full_system=false
sim_quantum=0
time_sync_enable=false
time_sync_period=100000000000
time_sync_spin_threshold=100000000

[system]
type=System
children=bridge clk_domain cpu cpu_clk_domain cpu_voltage_domain dvfs_handler iobus iocache l2 mem_ctrls membus redirect_paths0 redirect_paths1 redirect_paths2 tol2bus voltage_domain workload
auto_unlink_shared_backstore=false
cache_line_size=64
eventq_index=0
exit_on_work_items=false
init_param=0
m5ops_base=0
mem_mode=timing
mem_ranges=1073741824:9663676416
memories=system.mem_ctrls.dram
mmap_using_noreserve=false
multi_thread=false
num_work_ids=16
readfile=
redirect_paths=system.redirect_paths0 system.redirect_paths1 system.redirect_paths2
shadow_rom_ranges=
shared_backstore=
symbolfile=
thermal_components=
thermal_model=Null
work_begin_ckpt_count=0
work_begin_cpu_id_exit=-1
work_begin_exit_count=0
work_cpus_ckpt_count=0
work_end_ckpt_count=0
work_end_exit_count=0
work_item_id=-1
workload=system.workload
system_port=system.membus.cpu_side_ports[0]

[system.bridge]
type=Bridge
children=power_state
clk_domain=system.clk_domain
delay=50000
eventq_index=0
power_model=
power_state=system.bridge.power_state
ranges=268435456:268435464
req_size=16
resp_size=16
cpu_side_port=system.membus.mem_side_ports[0]
mem_side_port=system.iobus.cpu_side_ports[0]

[system.bridge.power_state]
type=PowerState
clk_gate_bins=20
clk_gate_max=1000000000000
clk_gate_min=1000
default_state=UNDEFINED
eventq_index=0
leaders=
possible_states=

[system.clk_domain]
type=SrcClockDomain
clock=1000
domain_id=-1
eventq_index=0
init_perf_level=0
voltage_domain=system.voltage_domain

[system.cpu]
type=BaseO3CPU
children=branchPred dcache decoder dtb_walker_cache fuPool icache interrupts isa itb_walker_cache mmu power_state tracer workload
LFSTSize=1024
LQEntries=32
LSQCheckLoads=true
LSQDepCheckShift=4
SQEntries=32
SSITSize=1024
activity=0
backComSize=5
branchPred=system.cpu.branchPred
cacheLoadPorts=200
cacheStorePorts=200
checker=Null
clk_domain=system.cpu_clk_domain
commitToDecodeDelay=1
commitToFetchDelay=1
commitToIEWDelay=1
commitToRenameDelay=1
commitWidth=4
cpu_id=0
decodeToFetchDelay=1
decodeToRenameDelay=1
decodeWidth=4
decoder=system.cpu.decoder
dispatchWidth=4
do_checkpoint_insts=true
do_statistics_insts=true
eventq_index=0
fetchBufferSize=64
fetchQueueSize=64
fetchToDecodeDelay=4
fetchTrapLatency=1
fetchWidth=8
forwardComSize=5
fuPool=system.cpu.fuPool
function_trace=false
function_trace_start=0
iewToCommitDelay=1
iewToDecodeDelay=1
iewToFetchDelay=1
iewToRenameDelay=1
interrupts=system.cpu.interrupts
isa=system.cpu.isa
issueToExecuteDelay=1
issueWidth=4
max_insts_all_threads=0
max_insts_any_thread=0
mmu=system.cpu.mmu
needsTSO=false
numIQEntries=32
numPhysCCRegs=0
numPhysFloatRegs=128
numPhysIntRegs=128
numPhysVecPredRegs=6
numPhysVecRegs=48
numROBEntries=128
numRobs=1
numThreads=1
power_gating_on_idle=false
power_model=
power_state=system.cpu.power_state
progress_interval=0
pwr_gating_latency=300
renameToDecodeDelay=1
renameToFetchDelay=1
renameToIEWDelay=2
renameToROBDelay=1
renameWidth=4
simpoint_start_insts=
smtCommitPolicy=RoundRobin
smtFetchPolicy=RoundRobin
smtIQPolicy=Partitioned
smtIQThreshold=100
smtLSQPolicy=Partitioned
smtLSQThreshold=100
smtNumFetchingThreads=1
smtROBPolicy=Partitioned
smtROBThreshold=100
socket_id=0
squashWidth=4
store_set_clear_period=250000
switched_out=false
syscallRetryLatency=10000
system=system
tracer=system.cpu.tracer
trapLatency=10
wbWidth=4
workload=system.cpu.workload
dcache_port=system.cpu.dcache.cpu_side
icache_port=system.cpu.icache.cpu_side

[system.cpu.branchPred]
type=LTAGE
children=indirectBranchPred loop_predictor tage
BTBEntries=4096
BTBTagSize=16
RASSize=32
eventq_index=0
indirectBranchPred=system.cpu.branchPred.indirectBranchPred
instShiftAmt=2
loop_predictor=system.cpu.branchPred.loop_predictor
numThreads=1
tage=system.cpu.branchPred.tage

[system.cpu.branchPred.indirectBranchPred]
type=SimpleIndirectPredictor
eventq_index=0
indirectGHRBits=13
indirectHashGHR=true
indirectHashTargets=true
indirectPathLength=3
indirectSets=256
indirectTagSize=16
indirectWays=2
instShiftAmt=2
numThreads=1

[system.cpu.branchPred.loop_predictor]
type=LoopPredictor
eventq_index=0
initialLoopAge=255
initialLoopIter=1
logLoopTableAssoc=2
logSizeLoopPred=8
loopTableAgeBits=8
loopTableConfidenceBits=2
loopTableIterBits=14
loopTableTagBits=14
optionalAgeReset=true
restrictAllocation=false
useDirectionBit=false
useHashing=false
useSpeculation=false
withLoopBits=7

[system.cpu.branchPred.tage]
type=TAGEBase
eventq_index=0
histBufferSize=2097152
initialTCounterValue=131072
instShiftAmt=2
logRatioBiModalHystEntries=2
logTagTableSizes=14 10 10 11 11 11 11 10 10 10 10 9 9
logUResetPeriod=19
maxHist=640
maxNumAlloc=1
minHist=4
nHistoryTables=12
noSkip=
numThreads=1
numUseAltOnNa=1
pathHistBits=16
speculativeHistUpdate=true
tagTableCounterBits=3
tagTableTagWidths=0 7 7 8 8 9 10 11 12 12 13 14 15
tagTableUBits=2
useAltOnNaBits=4

[system.cpu.dcache]
type=Cache
children=power_state prefetcher replacement_policy tags
addr_ranges=0:18446744073709551615
assoc=8
clk_domain=system.cpu_clk_domain
clusivity=mostly_incl
compressor=Null
data_latency=1
demand_mshr_reserve=1
eventq_index=0
is_read_only=false
max_miss_count=0
move_contractions=true
mshrs=8
power_model=
power_state=system.cpu.dcache.power_state
prefetch_on_access=false
prefetch_on_pf_hit=false
prefetcher=system.cpu.dcache.prefetcher
replace_expansions=true
replacement_policy=system.cpu.dcache.replacement_policy
response_latency=2
sequential_access=false
size=32768
system=system
tag_latency=1
tags=system.cpu.dcache.tags
tgts_per_mshr=20
warmup_percentage=0
write_allocator=Null
write_buffers=8
writeback_clean=false
cpu_side=system.cpu.dcache_port
mem_side=system.tol2bus.cpu_side_ports[1]

[system.cpu.dcache.power_state]
type=PowerState
clk_gate_bins=20
clk_gate_max=1000000000000
clk_gate_min=1000
default_state=UNDEFINED
eventq_index=0
leaders=
possible_states=

[system.cpu.dcache.prefetcher]
type=TaggedPrefetcher
children=power_state
block_size=64
cache_snoop=false
clk_domain=system.cpu_clk_domain
degree=1
eventq_index=0
latency=1
max_prefetch_requests_with_pending_translation=32
on_data=true
on_inst=true
on_miss=false
on_read=true
on_write=true
page_bytes=4096
power_model=
power_state=system.cpu.dcache.prefetcher.power_state
prefetch_on_access=false
prefetch_on_pf_hit=false
queue_filter=true
queue_size=32
queue_squash=true
sys=system
tag_prefetch=true
throttle_control_percentage=0
use_virtual_addresses=false

[system.cpu.dcache.prefetcher.power_state]
type=PowerState
clk_gate_bins=20
clk_gate_max=1000000000000
clk_gate_min=1000
default_state=UNDEFINED
eventq_index=0
leaders=
possible_states=

[system.cpu.dcache.replacement_policy]
type=LRURP
eventq_index=0

[system.cpu.dcache.tags]
type=BaseSetAssoc
children=indexing_policy power_state
assoc=8
block_size=64
clk_domain=system.cpu_clk_domain
entry_size=64
eventq_index=0
indexing_policy=system.cpu.dcache.tags.indexing_policy
power_model=
power_state=system.cpu.dcache.tags.power_state
replacement_policy=system.cpu.dcache.replacement_policy
sequential_access=false
size=32768
system=system
tag_latency=1
warmup_percentage=0

[system.cpu.dcache.tags.indexing_policy]
type=SetAssociative
assoc=8
entry_size=64
eventq_index=0
size=32768

[system.cpu.dcache.tags.power_state]
type=PowerState
clk_gate_bins=20
clk_gate_max=1000000000000
clk_gate_min=1000
default_state=UNDEFINED
eventq_index=0
leaders=
possible_states=

[system.cpu.decoder]
type=RiscvDecoder
eventq_index=0
isa=system.cpu.isa

[system.cpu.dtb_walker_cache]
type=Cache
children=power_state replacement_policy tags
addr_ranges=0:18446744073709551615
assoc=32
clk_domain=system.cpu_clk_domain
clusivity=mostly_incl
compressor=Null
data_latency=2
demand_mshr_reserve=1
eventq_index=0
is_read_only=false
max_miss_count=0
move_contractions=true
mshrs=10
power_model=
power_state=system.cpu.dtb_walker_cache.power_state
prefetch_on_access=false
prefetch_on_pf_hit=false
prefetcher=Null
replace_expansions=true
replacement_policy=system.cpu.dtb_walker_cache.replacement_policy
response_latency=2
sequential_access=false
size=4096
system=system
tag_latency=2
tags=system.cpu.dtb_walker_cache.tags
tgts_per_mshr=12
warmup_percentage=0
write_allocator=Null
write_buffers=8
writeback_clean=false
cpu_side=system.cpu.mmu.dtb.walker.port
mem_side=system.tol2bus.cpu_side_ports[3]

[system.cpu.dtb_walker_cache.power_state]
type=PowerState
clk_gate_bins=20
clk_gate_max=1000000000000
clk_gate_min=1000
default_state=UNDEFINED
eventq_index=0
leaders=
possible_states=

[system.cpu.dtb_walker_cache.replacement_policy]
type=LRURP
eventq_index=0

[system.cpu.dtb_walker_cache.tags]
type=BaseSetAssoc
children=indexing_policy power_state
assoc=32
block_size=64
clk_domain=system.cpu_clk_domain
entry_size=64
eventq_index=0
indexing_policy=system.cpu.dtb_walker_cache.tags.indexing_policy
power_model=
power_state=system.cpu.dtb_walker_cache.tags.power_state
replacement_policy=system.cpu.dtb_walker_cache.replacement_policy
sequential_access=false
size=4096
system=system
tag_latency=2
warmup_percentage=0

[system.cpu.dtb_walker_cache.tags.indexing_policy]
type=SetAssociative
assoc=32
entry_size=64
eventq_index=0
size=4096

[system.cpu.dtb_walker_cache.tags.power_state]
type=PowerState
clk_gate_bins=20
clk_gate_max=1000000000000
clk_gate_min=1000
default_state=UNDEFINED
eventq_index=0
leaders=
possible_states=

[system.cpu.fuPool]
type=FUPool
children=FUList00 FUList01 FUList02 FUList03 FUList04 FUList05 FUList06 FUList07 FUList08 FUList09 FUList10 FUList11
FUList=system.cpu.fuPool.FUList00 system.cpu.fuPool.FUList01 system.cpu.fuPool.FUList02 system.cpu.fuPool.FUList03 system.cpu.fuPool.FUList04 system.cpu.fuPool.FUList05 system.cpu.fuPool.FUList06 system.cpu.fuPool.FUList07 system.cpu.fuPool.FUList08 system.cpu.fuPool.FUList09 system.cpu.fuPool.FUList10 system.cpu.fuPool.FUList11
eventq_index=0

[system.cpu.fuPool.FUList00]
type=FUDesc
children=opList
count=4
eventq_index=0
opList=system.cpu.fuPool.FUList00.opList

[system.cpu.fuPool.FUList00.opList]
type=OpDesc
eventq_index=0
opClass=IntAlu
opLat=1
pipelined=true

[system.cpu.fuPool.FUList01]
type=FUDesc
children=opList0 opList1
count=1
eventq_index=0
opList=system.cpu.fuPool.FUList01.opList0 system.cpu.fuPool.FUList01.opList1

[system.cpu.fuPool.FUList01.opList0]
type=OpDesc
eventq_index=0
opClass=IntMult
opLat=3
pipelined=true

[system.cpu.fuPool.FUList01.opList1]
type=OpDesc
eventq_index=0
opClass=IntDiv
opLat=20
pipelined=false

[system.cpu.fuPool.FUList02]
type=FUDesc
children=opList0 opList1 opList2
count=2
eventq_index=0
opList=system.cpu.fuPool.FUList02.opList0 system.cpu.fuPool.FUList02.opList1 system.cpu.fuPool.FUList02.opList2

[system.cpu.fuPool.FUList02.opList0]
type=OpDesc
eventq_index=0
opClass=FloatAdd
opLat=2
pipelined=true

[system.cpu.fuPool.FUList02.opList1]
type=OpDesc
eventq_index=0
opClass=FloatCmp
opLat=2
pipelined=true

[system.cpu.fuPool.FUList02.opList2]
type=OpDesc
eventq_index=0
opClass=FloatCvt
opLat=2
pipelined=true

[system.cpu.fuPool.FUList03]
type=FUDesc
children=opList0 opList1 opList2
count=2
eventq_index=0
opList=system.cpu.fuPool.FUList03.opList0 system.cpu.fuPool.FUList03.opList1 system.cpu.fuPool.FUList03.opList2

[system.cpu.fuPool.FUList03.opList0]
type=OpDesc
eventq_index=0
opClass=FloatMult
opLat=4
pipelined=true

[system.cpu.fuPool.FUList03.opList1]
type=OpDesc
eventq_index=0
opClass=FloatMultAcc
opLat=4
pipelined=true

[system.cpu.fuPool.FUList03.opList2]
type=OpDesc
eventq_index=0
opClass=FloatMisc
opLat=3
pipelined=true

[system.cpu.fuPool.FUList04]
type=FUDesc
children=opList0 opList1
count=1
eventq_index=0
opList=system.cpu.fuPool.FUList04.opList0 system.cpu.fuPool.FUList04.opList1

[system.cpu.fuPool.FUList04.opList0]
type=OpDesc
eventq_index=0
opClass=FloatDiv
opLat=12
pipelined=false

[system.cpu.fuPool.FUList04.opList1]
type=OpDesc
eventq_index=0
opClass=FloatSqrt
opLat=24
pipelined=false

[system.cpu.fuPool.FUList05]
type=FUDesc
children=opList00 opList01 opList02 opList03 opList04 opList05 opList06 opList07 opList08 opList09 opList10 opList11 opList12 opList13 opList14 opList15 opList16 opList17 opList18 opList19 opList20 opList21 opList22 opList23 opList24 opList25
count=2
eventq_index=0
opList=system.cpu.fuPool.FUList05.opList00 system.cpu.fuPool.FUList05.opList01 system.cpu.fuPool.FUList05.opList02 system.cpu.fuPool.FUList05.opList03 system.cpu.fuPool.FUList05.opList04 system.cpu.fuPool.FUList05.opList05 system.cpu.fuPool.FUList05.opList06 system.cpu.fuPool.FUList05.opList07 system.cpu.fuPool.FUList05.opList08 system.cpu.fuPool.FUList05.opList09 system.cpu.fuPool.FUList05.opList10 system.cpu.fuPool.FUList05.opList11 system.cpu.fuPool.FUList05.opList12 system.cpu.fuPool.FUList05.opList13 system.cpu.fuPool.FUList05.opList14 system.cpu.fuPool.FUList05.opList15 system.cpu.fuPool.FUList05.opList16 system.cpu.fuPool.FUList05.opList17 system.cpu.fuPool.FUList05.opList18 system.cpu.fuPool.FUList05.opList19 system.cpu.fuPool.FUList05.opList20 system.cpu.fuPool.FUList05.opList21 system.cpu.fuPool.FUList05.opList22 system.cpu.fuPool.FUList05.opList23 system.cpu.fuPool.FUList05.opList24 system.cpu.fuPool.FUList05.opList25

[system.cpu.fuPool.FUList05.opList00]
type=OpDesc
eventq_index=0
opClass=SimdAdd
opLat=1
pipelined=true

[system.cpu.fuPool.FUList05.opList01]
type=OpDesc
eventq_index=0
opClass=SimdAddAcc
opLat=1
pipelined=true

[system.cpu.fuPool.FUList05.opList02]
type=OpDesc
eventq_index=0
opClass=SimdAlu
opLat=1
pipelined=true

[system.cpu.fuPool.FUList05.opList03]
type=OpDesc
eventq_index=0
opClass=SimdCmp
opLat=1
pipelined=true

[system.cpu.fuPool.FUList05.opList04]
type=OpDesc
eventq_index=0
opClass=SimdCvt
opLat=1
pipelined=true

[system.cpu.fuPool.FUList05.opList05]
type=OpDesc
eventq_index=0
opClass=SimdMisc
opLat=1
pipelined=true

[system.cpu.fuPool.FUList05.opList06]
type=OpDesc
eventq_index=0
opClass=SimdMult
opLat=1
pipelined=true

[system.cpu.fuPool.FUList05.opList07]
type=OpDesc
eventq_index=0
opClass=SimdMultAcc
opLat=1
pipelined=true

[system.cpu.fuPool.FUList05.opList08]
type=OpDesc
eventq_index=0
opClass=SimdShift
opLat=1
pipelined=true

[system.cpu.fuPool.FUList05.opList09]
type=OpDesc
eventq_index=0
opClass=SimdShiftAcc
opLat=1
pipelined=true

[system.cpu.fuPool.FUList05.opList10]
type=OpDesc
eventq_index=0
opClass=SimdDiv
opLat=1
pipelined=true

[system.cpu.fuPool.FUList05.opList11]
type=OpDesc
eventq_index=0
opClass=SimdSqrt
opLat=1
pipelined=true

[system.cpu.fuPool.FUList05.opList12]
type=OpDesc
eventq_index=0
opClass=SimdFloatAdd
opLat=1
pipelined=true

[system.cpu.fuPool.FUList05.opList13]
type=OpDesc
eventq_index=0
opClass=SimdFloatAlu
opLat=1
pipelined=true

[system.cpu.fuPool.FUList05.opList14]
type=OpDesc
eventq_index=0
opClass=SimdFloatCmp
opLat=1
pipelined=true

[system.cpu.fuPool.FUList05.opList15]
type=OpDesc
eventq_index=0
opClass=SimdFloatCvt
opLat=1
pipelined=true

[system.cpu.fuPool.FUList05.opList16]
type=OpDesc
eventq_index=0
opClass=SimdFloatDiv
opLat=1
pipelined=true

[system.cpu.fuPool.FUList05.opList17]
type=OpDesc
eventq_index=0
opClass=SimdFloatMisc
opLat=1
pipelined=true

[system.cpu.fuPool.FUList05.opList18]
type=OpDesc
eventq_index=0
opClass=SimdFloatMult
opLat=1
pipelined=true

[system.cpu.fuPool.FUList05.opList19]
type=OpDesc
eventq_index=0
opClass=SimdFloatMultAcc
opLat=4
pipelined=true

[system.cpu.fuPool.FUList05.opList20]
type=OpDesc
eventq_index=0
opClass=SimdFloatSqrt
opLat=1
pipelined=true

[system.cpu.fuPool.FUList05.opList21]
type=OpDesc
eventq_index=0
opClass=SimdReduceAdd
opLat=1
pipelined=true

[system.cpu.fuPool.FUList05.opList22]
type=OpDesc
eventq_index=0
opClass=SimdReduceAlu
opLat=1
pipelined=true

[system.cpu.fuPool.FUList05.opList23]
type=OpDesc
eventq_index=0
opClass=SimdReduceCmp
opLat=1
pipelined=true

[system.cpu.fuPool.FUList05.opList24]
type=OpDesc
eventq_index=0
opClass=SimdFloatReduceAdd
opLat=1
pipelined=true

[system.cpu.fuPool.FUList05.opList25]
type=OpDesc
eventq_index=0
opClass=SimdFloatReduceCmp
opLat=1
pipelined=true

[system.cpu.fuPool.FUList06]
type=FUDesc
children=opList
count=1
eventq_index=0
opList=system.cpu.fuPool.FUList06.opList

[system.cpu.fuPool.FUList06.opList]
type=OpDesc
eventq_index=0
opClass=SimdPredAlu
opLat=1
pipelined=true

[system.cpu.fuPool.FUList07]
type=FUDesc
children=opList
count=6
eventq_index=0
opList=system.cpu.fuPool.FUList07.opList

[system.cpu.fuPool.FUList07.opList]
type=OpDesc
eventq_index=0
opClass=MemRead
opLat=1
pipelined=true

[system.cpu.fuPool.FUList08]
type=FUDesc
children=opList
count=3
eventq_index=0
opList=system.cpu.fuPool.FUList08.opList

[system.cpu.fuPool.FUList08.opList]
type=OpDesc
eventq_index=0
opClass=MemWrite
opLat=1
pipelined=true

[system.cpu.fuPool.FUList09]
type=FUDesc
children=opList
count=3
eventq_index=0
opList=system.cpu.fuPool.FUList09.opList

[system.cpu.fuPool.FUList09.opList]
type=OpDesc
eventq_index=0
opClass=FloatMemRead
opLat=1
pipelined=true

[system.cpu.fuPool.FUList10]
type=FUDesc
children=opList
count=2
eventq_index=0
opList=system.cpu.fuPool.FUList10.opList

[system.cpu.fuPool.FUList10.opList]
type=OpDesc
eventq_index=0
opClass=FloatMemWrite
opLat=1
pipelined=true

[system.cpu.fuPool.FUList11]
type=FUDesc
children=opList
count=1
eventq_index=0
opList=system.cpu.fuPool.FUList11.opList

[system.cpu.fuPool.FUList11.opList]
type=OpDesc
eventq_index=0
opClass=IprAccess
opLat=3
pipelined=false

[system.cpu.icache]
type=Cache
children=power_state prefetcher replacement_policy tags
addr_ranges=0:18446744073709551615
assoc=8
clk_domain=system.cpu_clk_domain
clusivity=mostly_incl
compressor=Null
data_latency=1
demand_mshr_reserve=1
eventq_index=0
is_read_only=true
max_miss_count=0
move_contractions=true
mshrs=8
power_model=
power_state=system.cpu.icache.power_state
prefetch_on_access=false
prefetch_on_pf_hit=false
prefetcher=system.cpu.icache.prefetcher
replace_expansions=true
replacement_policy=system.cpu.icache.replacement_policy
response_latency=2
sequential_access=false
size=32768
system=system
tag_latency=1
tags=system.cpu.icache.tags
tgts_per_mshr=20
warmup_percentage=0
write_allocator=Null
write_buffers=8
writeback_clean=true
cpu_side=system.cpu.icache_port
mem_side=system.tol2bus.cpu_side_ports[0]

[system.cpu.icache.power_state]
type=PowerState
clk_gate_bins=20
clk_gate_max=1000000000000
clk_gate_min=1000
default_state=UNDEFINED
eventq_index=0
leaders=
possible_states=

[system.cpu.icache.prefetcher]
type=TaggedPrefetcher
children=power_state
block_size=64
cache_snoop=false
clk_domain=system.cpu_clk_domain
degree=1
eventq_index=0
latency=1
max_prefetch_requests_with_pending_translation=32
on_data=true
on_inst=true
on_miss=false
on_read=true
on_write=true
page_bytes=4096
power_model=
power_state=system.cpu.icache.prefetcher.power_state
prefetch_on_access=false
prefetch_on_pf_hit=false
queue_filter=true
queue_size=32
queue_squash=true
sys=system
tag_prefetch=true
throttle_control_percentage=0
use_virtual_addresses=false

[system.cpu.icache.prefetcher.power_state]
type=PowerState
clk_gate_bins=20
clk_gate_max=1000000000000
clk_gate_min=1000
default_state=UNDEFINED
eventq_index=0
leaders=
possible_states=

[system.cpu.icache.replacement_policy]
type=LRURP
eventq_index=0

[system.cpu.icache.tags]
type=BaseSetAssoc
children=indexing_policy power_state
assoc=8
block_size=64
clk_domain=system.cpu_clk_domain
entry_size=64
eventq_index=0
indexing_policy=system.cpu.icache.tags.indexing_policy
power_model=
power_state=system.cpu.icache.tags.power_state
replacement_policy=system.cpu.icache.replacement_policy
sequential_access=false
size=32768
system=system
tag_latency=1
warmup_percentage=0

[system.cpu.icache.tags.indexing_policy]
type=SetAssociative
assoc=8
entry_size=64
eventq_index=0
size=32768

[system.cpu.icache.tags.power_state]
type=PowerState
clk_gate_bins=20
clk_gate_max=1000000000000
clk_gate_min=1000
default_state=UNDEFINED
eventq_index=0
leaders=
possible_states=

[system.cpu.interrupts]
type=RiscvInterrupts
eventq_index=0

[system.cpu.isa]
type=RiscvISA
eventq_index=0

[system.cpu.itb_walker_cache]
type=Cache
children=power_state replacement_policy tags
addr_ranges=0:18446744073709551615
assoc=32
clk_domain=system.cpu_clk_domain
clusivity=mostly_incl
compressor=Null
data_latency=2
demand_mshr_reserve=1
eventq_index=0
is_read_only=false
max_miss_count=0
move_contractions=true
mshrs=10
power_model=
power_state=system.cpu.itb_walker_cache.power_state
prefetch_on_access=false
prefetch_on_pf_hit=false
prefetcher=Null
replace_expansions=true
replacement_policy=system.cpu.itb_walker_cache.replacement_policy
response_latency=2
sequential_access=false
size=4096
system=system
tag_latency=2
tags=system.cpu.itb_walker_cache.tags
tgts_per_mshr=12
warmup_percentage=0
write_allocator=Null
write_buffers=8
writeback_clean=false
cpu_side=system.cpu.mmu.itb.walker.port
mem_side=system.tol2bus.cpu_side_ports[2]

[system.cpu.itb_walker_cache.power_state]
type=PowerState
clk_gate_bins=20
clk_gate_max=1000000000000
clk_gate_min=1000
default_state=UNDEFINED
eventq_index=0
leaders=
possible_states=

[system.cpu.itb_walker_cache.replacement_policy]
type=LRURP
eventq_index=0

[system.cpu.itb_walker_cache.tags]
type=BaseSetAssoc
children=indexing_policy power_state
assoc=32
block_size=64
clk_domain=system.cpu_clk_domain
entry_size=64
eventq_index=0
indexing_policy=system.cpu.itb_walker_cache.tags.indexing_policy
power_model=
power_state=system.cpu.itb_walker_cache.tags.power_state
replacement_policy=system.cpu.itb_walker_cache.replacement_policy
sequential_access=false
size=4096
system=system
tag_latency=2
warmup_percentage=0

[system.cpu.itb_walker_cache.tags.indexing_policy]
type=SetAssociative
assoc=32
entry_size=64
eventq_index=0
size=4096

[system.cpu.itb_walker_cache.tags.power_state]
type=PowerState
clk_gate_bins=20
clk_gate_max=1000000000000
clk_gate_min=1000
default_state=UNDEFINED
eventq_index=0
leaders=
possible_states=

[system.cpu.mmu]
type=RiscvMMU
children=dtb itb pma_checker pmp
dtb=system.cpu.mmu.dtb
eventq_index=0
itb=system.cpu.mmu.itb
pma_checker=system.cpu.mmu.pma_checker
pmp=system.cpu.mmu.pmp

[system.cpu.mmu.dtb]
type=RiscvTLB
children=walker
entry_type=data
eventq_index=0
next_level=Null
pma_checker=system.cpu.mmu.pma_checker
pmp=system.cpu.mmu.pmp
size=64
walker=system.cpu.mmu.dtb.walker

[system.cpu.mmu.dtb.walker]
type=RiscvPagetableWalker
children=power_state
clk_domain=system.cpu_clk_domain
eventq_index=0
num_squash_per_cycle=4
pma_checker=system.cpu.mmu.pma_checker
pmp=system.cpu.mmu.pmp
power_model=
power_state=system.cpu.mmu.dtb.walker.power_state
system=system
port=system.cpu.dtb_walker_cache.cpu_side

[system.cpu.mmu.dtb.walker.power_state]
type=PowerState
clk_gate_bins=20
clk_gate_max=1000000000000
clk_gate_min=1000
default_state=UNDEFINED
eventq_index=0
leaders=
possible_states=

[system.cpu.mmu.itb]
type=RiscvTLB
children=walker
entry_type=instruction
eventq_index=0
next_level=Null
pma_checker=system.cpu.mmu.pma_checker
pmp=system.cpu.mmu.pmp
size=64
walker=system.cpu.mmu.itb.walker

[system.cpu.mmu.itb.walker]
type=RiscvPagetableWalker
children=power_state
clk_domain=system.cpu_clk_domain
eventq_index=0
num_squash_per_cycle=4
pma_checker=system.cpu.mmu.pma_checker
pmp=system.cpu.mmu.pmp
power_model=
power_state=system.cpu.mmu.itb.walker.power_state
system=system
port=system.cpu.itb_walker_cache.cpu_side

[system.cpu.mmu.itb.walker.power_state]
type=PowerState
clk_gate_bins=20
clk_gate_max=1000000000000
clk_gate_min=1000
default_state=UNDEFINED
eventq_index=0
leaders=
possible_states=

[system.cpu.mmu.pma_checker]
type=PMAChecker
eventq_index=0
uncacheable=268435456:268435464

[system.cpu.mmu.pmp]
type=PMP
eventq_index=0
pmp_entries=16

[system.cpu.power_state]
type=PowerState
clk_gate_bins=20
clk_gate_max=1000000000000
clk_gate_min=1000
default_state=UNDEFINED
eventq_index=0
leaders=
possible_states=ON CLK_GATED OFF

[system.cpu.tracer]
type=ExeTracer
eventq_index=0

[system.cpu.workload]
type=Process
cmd=configs/example/cpre581/gem5_riscv/tests/riscv-coremark/bin/coremark.riscv
cwd=/home/vm-user/Documents/github/gem5
drivers=
egid=100
env=
errout=cerr
euid=100
eventq_index=0
executable=configs/example/cpre581/gem5_riscv/tests/riscv-coremark/bin/coremark.riscv
gid=1000
input=cin
kvmInSE=false
maxStackSize=67108864
output=cout
pgid=100
pid=100
ppid=0
release=5.1.0
simpoint=0
system=system
uid=100
useArchPT=false

[system.cpu_clk_domain]
type=SrcClockDomain
clock=1000
domain_id=-1
eventq_index=0
init_perf_level=0
voltage_domain=system.cpu_voltage_domain

[system.cpu_voltage_domain]
type=VoltageDomain
eventq_index=0
voltage=1.0

[system.dvfs_handler]
type=DVFSHandler
domains=
enable=false
eventq_index=0
sys_clk_domain=system.clk_domain
transition_latency=100000000

[system.iobus]
type=NoncoherentXBar
children=power_state
clk_domain=system.clk_domain
eventq_index=0
forward_latency=1
frontend_latency=2
header_latency=1
power_model=
power_state=system.iobus.power_state
response_latency=2
use_default_range=false
width=16
cpu_side_ports=system.bridge.mem_side_port
mem_side_ports=system.iocache.cpu_side

[system.iobus.power_state]
type=PowerState
clk_gate_bins=20
clk_gate_max=1000000000000
clk_gate_min=1000
default_state=UNDEFINED
eventq_index=0
leaders=
possible_states=

[system.iocache]
type=Cache
children=power_state replacement_policy tags
addr_ranges=1073741824:9663676416
assoc=8
clk_domain=system.clk_domain
clusivity=mostly_incl
compressor=Null
data_latency=50
demand_mshr_reserve=1
eventq_index=0
is_read_only=false
max_miss_count=0
move_contractions=true
mshrs=20
power_model=
power_state=system.iocache.power_state
prefetch_on_access=false
prefetch_on_pf_hit=false
prefetcher=Null
replace_expansions=true
replacement_policy=system.iocache.replacement_policy
response_latency=50
sequential_access=false
size=1024
system=system
tag_latency=50
tags=system.iocache.tags
tgts_per_mshr=12
warmup_percentage=0
write_allocator=Null
write_buffers=8
writeback_clean=false
cpu_side=system.iobus.mem_side_ports[0]
mem_side=system.membus.cpu_side_ports[1]

[system.iocache.power_state]
type=PowerState
clk_gate_bins=20
clk_gate_max=1000000000000
clk_gate_min=1000
default_state=UNDEFINED
eventq_index=0
leaders=
possible_states=

[system.iocache.replacement_policy]
type=LRURP
eventq_index=0

[system.iocache.tags]
type=BaseSetAssoc
children=indexing_policy power_state
assoc=8
block_size=64
clk_domain=system.clk_domain
entry_size=64
eventq_index=0
indexing_policy=system.iocache.tags.indexing_policy
power_model=
power_state=system.iocache.tags.power_state
replacement_policy=system.iocache.replacement_policy
sequential_access=false
size=1024
system=system
tag_latency=50
warmup_percentage=0

[system.iocache.tags.indexing_policy]
type=SetAssociative
assoc=8
entry_size=64
eventq_index=0
size=1024

[system.iocache.tags.power_state]
type=PowerState
clk_gate_bins=20
clk_gate_max=1000000000000
clk_gate_min=1000
default_state=UNDEFINED
eventq_index=0
leaders=
possible_states=

[system.l2]
type=Cache
children=power_state prefetcher replacement_policy tags
addr_ranges=0:18446744073709551615
assoc=8
clk_domain=system.cpu_clk_domain
clusivity=mostly_incl
compressor=Null
data_latency=16
demand_mshr_reserve=1
eventq_index=0
is_read_only=false
max_miss_count=0
move_contractions=true
mshrs=20
power_model=
power_state=system.l2.power_state
prefetch_on_access=false
prefetch_on_pf_hit=false
prefetcher=system.l2.prefetcher
replace_expansions=true
replacement_policy=system.l2.replacement_policy
response_latency=18
sequential_access=false
size=524288
system=system
tag_latency=16
tags=system.l2.tags
tgts_per_mshr=12
warmup_percentage=0
write_allocator=Null
write_buffers=8
writeback_clean=false
cpu_side=system.tol2bus.mem_side_ports[0]
mem_side=system.membus.cpu_side_ports[2]

[system.l2.power_state]
type=PowerState
clk_gate_bins=20
clk_gate_max=1000000000000
clk_gate_min=1000
default_state=UNDEFINED
eventq_index=0
leaders=
possible_states=

[system.l2.prefetcher]
type=TaggedPrefetcher
children=power_state
block_size=64
cache_snoop=false
clk_domain=system.cpu_clk_domain
degree=1
eventq_index=0
latency=1
max_prefetch_requests_with_pending_translation=32
on_data=true
on_inst=true
on_miss=false
on_read=true
on_write=true
page_bytes=4096
power_model=
power_state=system.l2.prefetcher.power_state
prefetch_on_access=false
prefetch_on_pf_hit=false
queue_filter=true
queue_size=32
queue_squash=true
sys=system
tag_prefetch=true
throttle_control_percentage=0
use_virtual_addresses=false

[system.l2.prefetcher.power_state]
type=PowerState
clk_gate_bins=20
clk_gate_max=1000000000000
clk_gate_min=1000
default_state=UNDEFINED
eventq_index=0
leaders=
possible_states=

[system.l2.replacement_policy]
type=LRURP
eventq_index=0

[system.l2.tags]
type=BaseSetAssoc
children=indexing_policy power_state
assoc=8
block_size=64
clk_domain=system.cpu_clk_domain
entry_size=64
eventq_index=0
indexing_policy=system.l2.tags.indexing_policy
power_model=
power_state=system.l2.tags.power_state
replacement_policy=system.l2.replacement_policy
sequential_access=false
size=524288
system=system
tag_latency=16
warmup_percentage=0

[system.l2.tags.indexing_policy]
type=SetAssociative
assoc=8
entry_size=64
eventq_index=0
size=524288

[system.l2.tags.power_state]
type=PowerState
clk_gate_bins=20
clk_gate_max=1000000000000
clk_gate_min=1000
default_state=UNDEFINED
eventq_index=0
leaders=
possible_states=

[system.mem_ctrls]
type=MemCtrl
children=dram power_state
clk_domain=system.clk_domain
command_window=10000
dram=system.mem_ctrls.dram
eventq_index=0
mem_sched_policy=frfcfs
min_reads_per_switch=16
min_writes_per_switch=16
power_model=
power_state=system.mem_ctrls.power_state
qos_policy=Null
qos_priorities=1
qos_priority_escalation=false
qos_q_policy=fifo
qos_requestors=               
qos_syncro_scheduler=false
qos_turnaround_policy=Null
static_backend_latency=10000
static_frontend_latency=10000
system=system
write_high_thresh_perc=85
write_low_thresh_perc=50